LTspice 24.1.9 for Windows
Circuit: C:\Users\Mohammad Amash\Documents\Notes\Internship 2025\Week 3\Day 1\19-06-24 Task 1 Full Wave Rectifier\Circuit Files\Full_Wave_Rectifier.net
Start Time: Thu Jun 19 18:49:15 2025
solver = Normal
Maximum thread count: 12
tnom = 27
temp = 27
method = trap
.OP point found by inspection.
Total elapsed time: 0.070 seconds.

Files loaded:
C:\Users\Mohammad Amash\Documents\Notes\Internship 2025\Week 3\Day 1\19-06-24 Task 1 Full Wave Rectifier\Circuit Files\Full_Wave_Rectifier.net
C:\Users\Mohammad Amash\AppData\Local\LTspice\lib\cmp\standard.dio

